INTERNAL_TIDES = True
FIRST_MODE_PERIOD = 44567
INTERNAL_TIDE_SOURCE_TEST = True
INTERNAL_TIDE_USE_GLOB_IJ = True
INTERNAL_TIDE_SOURCE_I = 50
INTERNAL_TIDE_SOURCE_J = 10
INTERNAL_TIDE_SOURCE_TLEN_DAYS = 1
H2_FILE = h2_narrow_chan.nc
REFL_ANGLE_FILE = IWcoefs_narrow_channel.nc
REFL_PREF_FILE = IWcoefs_narrow_channel.nc
REFL_DBL_FILE = IWcoefs_narrow_channel.nc
!INTERNAL_TIDE_ENERGIZED_ANGLE = 7
INTERNAL_TIDE_ENERGIZED_ANGLE = 3
#override TOPO_CONFIG = "flat"
#override BETA = 0.0
#override BBUILDER_N = 0
