INTERNAL_TIDES = True
FIRST_MODE_PERIOD = 44567
INTERNAL_TIDE_SOURCE_TEST = True
INTERNAL_TIDE_SOURCE_X = -150.0
INTERNAL_TIDE_SOURCE_Y = 20.0
INTERNAL_TIDE_SOURCE_TLEN_DAYS = 1
H2_FILE = h2_narrow_chan.nc
REFL_ANGLE_FILE = IWcoefs_narrow_channel.nc
REFL_PREF_FILE = IWcoefs_narrow_channel.nc
REFL_DBL_FILE = IWcoefs_narrow_channel.nc
INTERNAL_TIDE_WAVE_DRAG = False
INTERNAL_TIDE_FROUDE_DRAG = False
!DIABATIC_FIRST = True
!DEBUG = TRUE
!VERBOSITY = 9
#override TOPO_CONFIG = "flat"
#override BETA = 0.0
#override REENTRANT_X = False
OBC_NUMBER_OF_SEGMENTS = 2
OBC_SEGMENT_001 = "I=0,J=N:0,FLATHER,ORLANSKI"
OBC_SEGMENT_002 = "I=N,J=0:N,FLATHER,ORLANSKI"
