INTERNAL_TIDES = True
FIRST_MODE_PERIOD = 44567
INTERNAL_TIDE_SOURCE_TEST = True
INTERNAL_TIDE_SOURCE_X = -150.0
INTERNAL_TIDE_SOURCE_Y = 30.0
INTERNAL_TIDE_SOURCE_TLEN_DAYS = 1
H2_FILE = h2_wide_chan.nc
!REFL_ANGLE_FILE = 
!REFL_PREF_FILE = 
!REFL_DBL_FILE = 
INTERNAL_TIDE_WAVE_DRAG = False
INTERNAL_TIDE_FROUDE_DRAG = False
!DIABATIC_FIRST = True
!DEBUG = TRUE
!VERBOSITY = 9
#override F_0 = 9.35E-05
#override BETA = 1.75E-11
#override LAT_0 = 40.
