INTERNAL_TIDES = True
FIRST_MODE_PERIOD = 44567
INTERNAL_TIDE_SOURCE_TEST = True
INTERNAL_TIDE_SOURCE_X = -190.0
INTERNAL_TIDE_SOURCE_Y = 20.0
INTERNAL_TIDE_SOURCE_TLEN_DAYS = 1
H2_FILE = h2_narrow_chan.nc
REFL_ANGLE_FILE = IWcoefs_narrow_channel_ridge.nc
REFL_PREF_FILE = IWcoefs_narrow_channel_ridge.nc
REFL_DBL_FILE = IWcoefs_narrow_channel_ridge.nc
INTERNAL_TIDE_WAVE_DRAG = False
INTERNAL_TIDE_FROUDE_DRAG = False
!DEBUG = TRUE
!VERBOSITY = 9
#override BETA = 0.0
#override BBUILDER_N = 1
#override BBUILDER_001_FUNC = NS_SCURVE_RIDGE
#override BBUILDER_001_PARS = -150., 10., 35.,10.,4500.
