INTERNAL_TIDES = True
FIRST_MODE_PERIOD = 44567
INTERNAL_TIDE_SOURCE_TEST = True
INTERNAL_TIDE_SOURCE_X = -150.0
INTERNAL_TIDE_SOURCE_Y = 30.0
INTERNAL_TIDE_SOURCE_TLEN_DAYS = 1
H2_FILE = h2_wide_chan.nc
REFL_ANGLE_FILE = IWcoefs_wide_channel.nc
REFL_PREF_FILE = IWcoefs_wide_channel.nc
REFL_DBL_FILE = IWcoefs_wide_channel.nc
INTERNAL_TIDE_WAVE_DRAG = False
INTERNAL_TIDE_FROUDE_DRAG = False
!DEBUG = TRUE
!VERBOSITY = 9
#override BETA = 0.0
