INTERNAL_TIDES = True
FIRST_MODE_PERIOD = 44567
INTERNAL_TIDE_SOURCE_TEST = True
INTERNAL_TIDE_SOURCE_X = -150.0
INTERNAL_TIDE_SOURCE_Y = 20.0
INTERNAL_TIDE_SOURCE_TLEN_DAYS = 1
H2_FILE = h2_long_chan.nc
REFL_ANGLE_FILE = IWcoefs_long_channel.nc
REFL_PREF_FILE = IWcoefs_long_channel.nc
REFL_DBL_FILE = IWcoefs_long_channel.nc
INTERNAL_TIDE_WAVE_DRAG = False
INTERNAL_TIDE_FROUDE_DRAG = False
!DEBUG = TRUE
!VERBOSITY = 9
#override TOPO_CONFIG = "flat"
#override BETA = 0.0
!#override LAYOUT = 1,1
!INTERNAL_TIDE_ENERGIZED_ANGLE = 1
INTERNAL_TIDE_ENERGIZED_ANGLE = 3
!GAMMA_ITIDES = 0.
!INTERNAL_TIDE_UPWIND_1ST = True
!INTERNAL_TIDE_SIMPLE_2ND_PPM = True
